data/p13uhs0_1247/DSSfiles/p13uhs0_1247--p13udt18158/PVSystems.dss
New PVSystem.pv_load_p13ulv28552 bus1=p13ulv28552.1.2.3 phases=3 kV=0.48 kVA=90.90909090909089 Pmpp=100.0 %Cutout=0.1 %Cutin=0.1 Model=1 irradiance=1 yearly=SFO_37.8764_-122.3414_25_180
New PVSystem.pv_load_p13ulv39459 bus1=p13ulv39459.1.2 phases=1 kV=0.24 kVA=4.545454545454545 Pmpp=5.0 %Cutout=0.1 %Cutin=0.1 Model=1 irradiance=1 yearly=SFO_37.8764_-122.3414_25_180
New PVSystem.pv_load_p13ulv28555 bus1=p13ulv28555.1.2.3 phases=3 kV=0.48 kVA=90.90909090909089 Pmpp=100.0 %Cutout=0.1 %Cutin=0.1 Model=1 irradiance=1 yearly=SFO_37.8764_-122.3414_25_180
New PVSystem.pv_load_p13ulv28520 bus1=p13ulv28520.1.2 phases=1 kV=0.24 kVA=90.90909090909089 Pmpp=100.0 %Cutout=0.1 %Cutin=0.1 Model=1 irradiance=1 yearly=SFO_37.8764_-122.3414_35_225
New PVSystem.pv_load_p13ulv28967 bus1=p13ulv28967.1.2 phases=1 kV=0.24 kVA=4.545454545454545 Pmpp=5.0 %Cutout=0.1 %Cutin=0.1 Model=1 irradiance=1 yearly=SFO_37.8764_-122.3414_35_90
New PVSystem.pv_load_p13ulv28982 bus1=p13ulv28982.1.2.3 phases=3 kV=0.48 kVA=7.2727272727272725 Pmpp=8.0 %Cutout=0.1 %Cutin=0.1 Model=1 irradiance=1 yearly=SFO_37.8764_-122.3414_25_270
New PVSystem.pv_load_p13ulv28539 bus1=p13ulv28539.1.2.3 phases=3 kV=0.48 kVA=90.90909090909089 Pmpp=100.0 %Cutout=0.1 %Cutin=0.1 Model=1 irradiance=1 yearly=SFO_37.8764_-122.3414_25_225
New PVSystem.pv_load_p13ulv28523 bus1=p13ulv28523.1.2 phases=1 kV=0.24 kVA=90.90909090909089 Pmpp=100.0 %Cutout=0.1 %Cutin=0.1 Model=1 irradiance=1 yearly=SFO_37.8764_-122.3414_25_225
New PVSystem.pv_load_p13ulv41959 bus1=p13ulv41959.1.2 phases=1 kV=0.24 kVA=4.545454545454545 Pmpp=5.0 %Cutout=0.1 %Cutin=0.1 Model=1 irradiance=1 yearly=SFO_37.8764_-122.3414_25_270
New PVSystem.pv_load_p13ulv39840 bus1=p13ulv39840.1.2.3 phases=3 kV=0.48 kVA=90.90909090909089 Pmpp=100.0 %Cutout=0.1 %Cutin=0.1 Model=1 irradiance=1 yearly=SFO_37.8764_-122.3414_15_180
New PVSystem.pv_load_p13ulv28501 bus1=p13ulv28501.1.2.3 phases=3 kV=0.48 kVA=7.2727272727272725 Pmpp=8.0 %Cutout=0.1 %Cutin=0.1 Model=1 irradiance=1 yearly=SFO_37.8764_-122.3414_15_180
New PVSystem.pv_load_p13ulv19934 bus1=p13ulv19934.1.2 phases=1 kV=0.24 kVA=90.90909090909089 Pmpp=100.0 %Cutout=0.1 %Cutin=0.1 Model=1 irradiance=1 yearly=SFO_37.8764_-122.3414_25_135
New PVSystem.pv_load_p13ulv39854 bus1=p13ulv39854.1.2 phases=1 kV=0.24 kVA=90.90909090909089 Pmpp=100.0 %Cutout=0.1 %Cutin=0.1 Model=1 irradiance=1 yearly=SFO_37.8764_-122.3414_25_225
New PVSystem.pv_load_p13ulv28494 bus1=p13ulv28494.1.2.3 phases=3 kV=0.48 kVA=7.2727272727272725 Pmpp=8.0 %Cutout=0.1 %Cutin=0.1 Model=1 irradiance=1 yearly=SFO_37.8764_-122.3414_25_225
New PVSystem.pv_load_p13ulv39477 bus1=p13ulv39477.1.2 phases=1 kV=0.24 kVA=4.545454545454545 Pmpp=5.0 %Cutout=0.1 %Cutin=0.1 Model=1 irradiance=1 yearly=SFO_37.8764_-122.3414_25_270
New PVSystem.pv_load_p13ulv28517 bus1=p13ulv28517.1.2 phases=1 kV=0.24 kVA=90.90909090909089 Pmpp=100.0 %Cutout=0.1 %Cutin=0.1 Model=1 irradiance=1 yearly=SFO_37.8764_-122.3414_25_180
New PVSystem.pv_load_p13ulv28505 bus1=p13ulv28505.1.2 phases=1 kV=0.24 kVA=90.90909090909089 Pmpp=100.0 %Cutout=0.1 %Cutin=0.1 Model=1 irradiance=1 yearly=SFO_37.8764_-122.3414_25_225
New PVSystem.pv_load_p13ulv41976 bus1=p13ulv41976.1.2 phases=1 kV=0.24 kVA=4.545454545454545 Pmpp=5.0 %Cutout=0.1 %Cutin=0.1 Model=1 irradiance=1 yearly=SFO_37.8764_-122.3414_15_270
New PVSystem.pv_load_p13ulv41977 bus1=p13ulv41977.1.2 phases=1 kV=0.24 kVA=4.545454545454545 Pmpp=5.0 %Cutout=0.1 %Cutin=0.1 Model=1 irradiance=1 yearly=SFO_37.8764_-122.3414_15_90
New PVSystem.pv_load_p13ulv43333 bus1=p13ulv43333.1.2.3 phases=3 kV=0.48 kVA=90.90909090909089 Pmpp=100.0 %Cutout=0.1 %Cutin=0.1 Model=1 irradiance=1 yearly=SFO_37.8764_-122.3414_15_180
New PVSystem.pv_load_p13ulv28512 bus1=p13ulv28512.1.2.3 phases=3 kV=0.48 kVA=90.90909090909089 Pmpp=100.0 %Cutout=0.1 %Cutin=0.1 Model=1 irradiance=1 yearly=SFO_37.8764_-122.3414_25_270
New PVSystem.pv_load_p13ulv28965 bus1=p13ulv28965.1.2 phases=1 kV=0.24 kVA=4.545454545454545 Pmpp=5.0 %Cutout=0.1 %Cutin=0.1 Model=1 irradiance=1 yearly=SFO_37.8764_-122.3414_15_180
New PVSystem.pv_load_p13ulv28587 bus1=p13ulv28586.1.2.3 phases=3 kV=0.48 kVA=7.2727272727272725 Pmpp=8.0 %Cutout=0.1 %Cutin=0.1 Model=1 irradiance=1 yearly=SFO_37.8764_-122.3414_15_270
New PVSystem.pv_load_p13ulv41971 bus1=p13ulv41971.1.2 phases=1 kV=0.24 kVA=4.545454545454545 Pmpp=5.0 %Cutout=0.1 %Cutin=0.1 Model=1 irradiance=1 yearly=SFO_37.8764_-122.3414_35_90
New PVSystem.pv_load_p13ulv39464 bus1=p13ulv39464.1.2.3 phases=3 kV=0.48 kVA=7.2727272727272725 Pmpp=8.0 %Cutout=0.1 %Cutin=0.1 Model=1 irradiance=1 yearly=SFO_37.8764_-122.3414_15_180
New PVSystem.pv_load_p13ulv43332 bus1=p13ulv43332.1.2.3 phases=3 kV=0.48 kVA=7.2727272727272725 Pmpp=8.0 %Cutout=0.1 %Cutin=0.1 Model=1 irradiance=1 yearly=SFO_37.8764_-122.3414_15_135
New PVSystem.pv_load_p13ulv41920 bus1=p13ulv41920.1.2 phases=1 kV=0.24 kVA=4.545454545454545 Pmpp=5.0 %Cutout=0.1 %Cutin=0.1 Model=1 irradiance=1 yearly=SFO_37.8764_-122.3414_25_90
New PVSystem.pv_load_p13ulv39831 bus1=p13ulv39831.1.2 phases=1 kV=0.24 kVA=4.545454545454545 Pmpp=5.0 %Cutout=0.1 %Cutin=0.1 Model=1 irradiance=1 yearly=SFO_37.8764_-122.3414_15_270
New PVSystem.pv_load_p13ulv28573 bus1=p13ulv28573.1.2.3 phases=3 kV=0.48 kVA=90.90909090909089 Pmpp=100.0 %Cutout=0.1 %Cutin=0.1 Model=1 irradiance=1 yearly=SFO_37.8764_-122.3414_15_180
New PVSystem.pv_load_p13ulv28564 bus1=p13ulv28564.1.2.3 phases=3 kV=0.48 kVA=7.2727272727272725 Pmpp=8.0 %Cutout=0.1 %Cutin=0.1 Model=1 irradiance=1 yearly=SFO_37.8764_-122.3414_25_225
New PVSystem.pv_load_p13ulv28978 bus1=p13ulv28978.1.2 phases=1 kV=0.24 kVA=90.90909090909089 Pmpp=100.0 %Cutout=0.1 %Cutin=0.1 Model=1 irradiance=1 yearly=SFO_37.8764_-122.3414_15_225
New PVSystem.pv_load_p13ulv39517 bus1=p13ulv39517.1.2 phases=1 kV=0.24 kVA=4.545454545454545 Pmpp=5.0 %Cutout=0.1 %Cutin=0.1 Model=1 irradiance=1 yearly=SFO_37.8764_-122.3414_25_90
New PVSystem.pv_load_p13ulv28481 bus1=p13ulv28481.1.2 phases=1 kV=0.24 kVA=7.2727272727272725 Pmpp=8.0 %Cutout=0.1 %Cutin=0.1 Model=1 irradiance=1 yearly=SFO_37.8764_-122.3414_25_180
New PVSystem.pv_load_p13ulv39793 bus1=p13ulv39793.1.2.3 phases=3 kV=0.48 kVA=272.7272727272727 Pmpp=300.0 %Cutout=0.1 %Cutin=0.1 Model=1 irradiance=1 yearly=SFO_37.8764_-122.3414_15_180
New PVSystem.pv_load_p13ulv28546 bus1=p13ulv28546.1.2.3 phases=3 kV=0.48 kVA=90.90909090909089 Pmpp=100.0 %Cutout=0.1 %Cutin=0.1 Model=1 irradiance=1 yearly=SFO_37.8764_-122.3414_25_225
New PVSystem.pv_load_p13ulv28562 bus1=p13ulv28562.1.2.3 phases=3 kV=0.48 kVA=7.2727272727272725 Pmpp=8.0 %Cutout=0.1 %Cutin=0.1 Model=1 irradiance=1 yearly=SFO_37.8764_-122.3414_15_180
New PVSystem.pv_load_p13ulv28568 bus1=p13ulv28568.1.2.3 phases=3 kV=0.48 kVA=90.90909090909089 Pmpp=100.0 %Cutout=0.1 %Cutin=0.1 Model=1 irradiance=1 yearly=SFO_37.8764_-122.3414_25_225
New PVSystem.pv_load_p13ulv39503 bus1=p13ulv39503.1.2.3 phases=3 kV=0.48 kVA=7.2727272727272725 Pmpp=8.0 %Cutout=0.1 %Cutin=0.1 Model=1 irradiance=1 yearly=SFO_37.8764_-122.3414_15_180
New PVSystem.pv_load_p13ulv41979 bus1=p13ulv41979.1.2 phases=1 kV=0.24 kVA=4.545454545454545 Pmpp=5.0 %Cutout=0.1 %Cutin=0.1 Model=1 irradiance=1 yearly=SFO_37.8764_-122.3414_35_135
New PVSystem.pv_load_p13ulv41914 bus1=p13ulv41911.1.2 phases=1 kV=0.24 kVA=4.545454545454545 Pmpp=5.0 %Cutout=0.1 %Cutin=0.1 Model=1 irradiance=1 yearly=SFO_37.8764_-122.3414_35_135
New PVSystem.pv_load_p13ulv41912 bus1=p13ulv41912.1.2 phases=1 kV=0.24 kVA=4.545454545454545 Pmpp=5.0 %Cutout=0.1 %Cutin=0.1 Model=1 irradiance=1 yearly=SFO_37.8764_-122.3414_25_270
New PVSystem.pv_load_p13ulv20024 bus1=p13ulv20024.1.2.3 phases=3 kV=0.48 kVA=7.2727272727272725 Pmpp=8.0 %Cutout=0.1 %Cutin=0.1 Model=1 irradiance=1 yearly=SFO_37.8764_-122.3414_15_180
New PVSystem.pv_load_p13ulv28510 bus1=p13ulv28510.1.2.3 phases=3 kV=0.48 kVA=7.2727272727272725 Pmpp=8.0 %Cutout=0.1 %Cutin=0.1 Model=1 irradiance=1 yearly=SFO_37.8764_-122.3414_15_180
New PVSystem.pv_load_p13ulv32082 bus1=p13ulv32082.1.2.3 phases=3 kV=0.48 kVA=7.2727272727272725 Pmpp=8.0 %Cutout=0.1 %Cutin=0.1 Model=1 irradiance=1 yearly=SFO_37.8764_-122.3414_35_270
New PVSystem.pv_load_p13ulv28962 bus1=p13ulv28962.1.2.3 phases=3 kV=0.48 kVA=7.2727272727272725 Pmpp=8.0 %Cutout=0.1 %Cutin=0.1 Model=1 irradiance=1 yearly=SFO_37.8764_-122.3414_15_180
New PVSystem.pv_load_p13ulv28513 bus1=p13ulv28512.1.2.3 phases=3 kV=0.48 kVA=95.69377990430621 Pmpp=100.0 %Cutout=0.1 %Cutin=0.1 Model=1 irradiance=1 yearly=SFO_37.8764_-122.3414_35_180
New PVSystem.pv_load_p13ulv28551 bus1=p13ulv28551.1.2.3 phases=3 kV=0.48 kVA=95.69377990430621 Pmpp=100.0 %Cutout=0.1 %Cutin=0.1 Model=1 irradiance=1 yearly=SFO_37.8764_-122.3414_15_225
New PVSystem.pv_load_p13ulv43463 bus1=p13ulv28954.1.2 phases=1 kV=0.24 kVA=4.784688995215311 Pmpp=5.0 %Cutout=0.1 %Cutin=0.1 Model=1 irradiance=1 yearly=SFO_37.8764_-122.3414_35_270
New PVSystem.pv_load_p13ulv28504 bus1=p13ulv28504.1.2.3 phases=3 kV=0.48 kVA=95.69377990430621 Pmpp=100.0 %Cutout=0.1 %Cutin=0.1 Model=1 irradiance=1 yearly=SFO_37.8764_-122.3414_15_180
New PVSystem.pv_load_p13ulv39506 bus1=p13ulv39506.1.2 phases=1 kV=0.24 kVA=2.8708133971291865 Pmpp=3.0 %Cutout=0.1 %Cutin=0.1 Model=1 irradiance=1 yearly=SFO_37.8764_-122.3414_25_90
New PVSystem.pv_load_p13ulv28986 bus1=p13ulv28986.1.2.3 phases=3 kV=0.48 kVA=7.655502392344497 Pmpp=8.0 %Cutout=0.1 %Cutin=0.1 Model=1 irradiance=1 yearly=SFO_37.8764_-122.3414_15_180
New PVSystem.pv_load_p13ulv41991 bus1=p13ulv41991.1.2 phases=1 kV=0.24 kVA=4.784688995215311 Pmpp=5.0 %Cutout=0.1 %Cutin=0.1 Model=1 irradiance=1 yearly=SFO_37.8764_-122.3414_15_180
New PVSystem.pv_load_p13ulv39496 bus1=p13ulv39496.1.2 phases=1 kV=0.24 kVA=4.784688995215311 Pmpp=5.0 %Cutout=0.1 %Cutin=0.1 Model=1 irradiance=1 yearly=SFO_37.8764_-122.3414_25_135
New PVSystem.pv_load_p13ulv28542 bus1=p13ulv28542.1.2.3 phases=3 kV=0.48 kVA=7.655502392344497 Pmpp=8.0 %Cutout=0.1 %Cutin=0.1 Model=1 irradiance=1 yearly=SFO_37.8764_-122.3414_35_135
New PVSystem.pv_load_p13ulv19935 bus1=p13ulv19935.1.2 phases=1 kV=0.24 kVA=95.69377990430621 Pmpp=100.0 %Cutout=0.1 %Cutin=0.1 Model=1 irradiance=1 yearly=SFO_37.8764_-122.3414_15_180
New PVSystem.pv_load_p13ulv39855 bus1=p13ulv39855.1.2 phases=1 kV=0.24 kVA=95.69377990430621 Pmpp=100.0 %Cutout=0.1 %Cutin=0.1 Model=1 irradiance=1 yearly=SFO_37.8764_-122.3414_15_225
New PVSystem.pv_load_p13ulv41940 bus1=p13ulv41940.1.2 phases=1 kV=0.24 kVA=4.784688995215311 Pmpp=5.0 %Cutout=0.1 %Cutin=0.1 Model=1 irradiance=1 yearly=SFO_37.8764_-122.3414_35_225
New PVSystem.pv_load_p13ulv32074 bus1=p13ulv32074.1.2 phases=1 kV=0.24 kVA=4.784688995215311 Pmpp=5.0 %Cutout=0.1 %Cutin=0.1 Model=1 irradiance=1 yearly=SFO_37.8764_-122.3414_15_135
New PVSystem.pv_load_p13ulv28492 bus1=p13ulv28492.1.2.3 phases=3 kV=0.48 kVA=95.69377990430621 Pmpp=100.0 %Cutout=0.1 %Cutin=0.1 Model=1 irradiance=1 yearly=SFO_37.8764_-122.3414_15_180
New PVSystem.pv_load_p13ulv28968 bus1=p13ulv28968.1.2 phases=1 kV=0.24 kVA=4.784688995215311 Pmpp=5.0 %Cutout=0.1 %Cutin=0.1 Model=1 irradiance=1 yearly=SFO_37.8764_-122.3414_15_225
New PVSystem.pv_load_p13ulv28515 bus1=p13ulv28515.1.2.3 phases=3 kV=0.48 kVA=95.69377990430621 Pmpp=100.0 %Cutout=0.1 %Cutin=0.1 Model=1 irradiance=1 yearly=SFO_37.8764_-122.3414_25_180
New PVSystem.pv_load_p13ulv39463 bus1=p13ulv39463.1.2 phases=1 kV=0.24 kVA=4.784688995215311 Pmpp=5.0 %Cutout=0.1 %Cutin=0.1 Model=1 irradiance=1 yearly=SFO_37.8764_-122.3414_15_90
New PVSystem.pv_load_p13ulv39482 bus1=p13ulv39482.1.2 phases=1 kV=0.24 kVA=4.784688995215311 Pmpp=5.0 %Cutout=0.1 %Cutin=0.1 Model=1 irradiance=1 yearly=SFO_37.8764_-122.3414_25_180
New PVSystem.pv_load_p13ulv39818 bus1=p13ulv39818.1.2.3 phases=3 kV=0.48 kVA=287.0813397129187 Pmpp=300.0 %Cutout=0.1 %Cutin=0.1 Model=1 irradiance=1 yearly=SFO_37.8764_-122.3414_15_180
New PVSystem.pv_load_p13ulv28565 bus1=p13ulv28565.1.2.3 phases=3 kV=0.48 kVA=95.69377990430621 Pmpp=100.0 %Cutout=0.1 %Cutin=0.1 Model=1 irradiance=1 yearly=SFO_37.8764_-122.3414_25_225
New PVSystem.pv_load_p13ulv28544 bus1=p13ulv28544.1.2.3 phases=3 kV=0.48 kVA=95.69377990430621 Pmpp=100.0 %Cutout=0.1 %Cutin=0.1 Model=1 irradiance=1 yearly=SFO_37.8764_-122.3414_35_180
New PVSystem.pv_load_p13ulv28973 bus1=p13ulv28973.1.2 phases=1 kV=0.24 kVA=4.784688995215311 Pmpp=5.0 %Cutout=0.1 %Cutin=0.1 Model=1 irradiance=1 yearly=SFO_37.8764_-122.3414_15_180
New PVSystem.pv_load_p13umv51 bus1=p13umv51.1.2.3 phases=3 kV=12.47 kVA=287.0813397129187 Pmpp=300.0 %Cutout=0.1 %Cutin=0.1 Model=1 irradiance=1 yearly=SFO_37.8764_-122.3414_25_270
New PVSystem.pv_load_p13ulv29000 bus1=p13ulv29000.1.2.3 phases=3 kV=0.48 kVA=95.69377990430621 Pmpp=100.0 %Cutout=0.1 %Cutin=0.1 Model=1 irradiance=1 yearly=SFO_37.8764_-122.3414_15_180
New PVSystem.pv_load_p13ulv29002 bus1=p13ulv29002.1.2.3 phases=3 kV=0.48 kVA=7.655502392344497 Pmpp=8.0 %Cutout=0.1 %Cutin=0.1 Model=1 irradiance=1 yearly=SFO_37.8764_-122.3414_15_180
New PVSystem.pv_load_p13ulv28521 bus1=p13ulv28521.1.2.3 phases=3 kV=0.48 kVA=7.655502392344497 Pmpp=8.0 %Cutout=0.1 %Cutin=0.1 Model=1 irradiance=1 yearly=SFO_37.8764_-122.3414_25_180
New PVSystem.pv_load_p13ulv43454 bus1=p13ulv43454.1.2 phases=1 kV=0.24 kVA=4.784688995215311 Pmpp=5.0 %Cutout=0.1 %Cutin=0.1 Model=1 irradiance=1 yearly=SFO_37.8764_-122.3414_15_180
New PVSystem.pv_load_p13ulv28557 bus1=p13ulv28557.1.2 phases=1 kV=0.24 kVA=95.69377990430621 Pmpp=100.0 %Cutout=0.1 %Cutin=0.1 Model=1 irradiance=1 yearly=SFO_37.8764_-122.3414_15_225
New PVSystem.pv_load_p13ulv28550 bus1=p13ulv28550.1.2 phases=1 kV=0.24 kVA=95.69377990430621 Pmpp=100.0 %Cutout=0.1 %Cutin=0.1 Model=1 irradiance=1 yearly=SFO_37.8764_-122.3414_25_225
New PVSystem.pv_load_p13ulv28572 bus1=p13ulv28571.1.2 phases=1 kV=0.24 kVA=95.69377990430621 Pmpp=100.0 %Cutout=0.1 %Cutin=0.1 Model=1 irradiance=1 yearly=SFO_37.8764_-122.3414_25_180
New PVSystem.pv_load_p13ulv28485 bus1=p13ulv28485.1.2 phases=1 kV=0.24 kVA=2.8708133971291865 Pmpp=3.0 %Cutout=0.1 %Cutin=0.1 Model=1 irradiance=1 yearly=SFO_37.8764_-122.3414_35_225
New PVSystem.pv_load_p13ulv28963 bus1=p13ulv28963.1.2 phases=1 kV=0.24 kVA=7.655502392344497 Pmpp=8.0 %Cutout=0.1 %Cutin=0.1 Model=1 irradiance=1 yearly=SFO_37.8764_-122.3414_15_180
New PVSystem.pv_load_p13ulv28493 bus1=p13ulv28493.1.2.3 phases=3 kV=0.48 kVA=95.69377990430621 Pmpp=100.0 %Cutout=0.1 %Cutin=0.1 Model=1 irradiance=1 yearly=SFO_37.8764_-122.3414_15_180
New PVSystem.pv_load_p13ulv39510 bus1=p13ulv39510.1.2.3 phases=3 kV=0.48 kVA=7.655502392344497 Pmpp=8.0 %Cutout=0.1 %Cutin=0.1 Model=1 irradiance=1 yearly=SFO_37.8764_-122.3414_15_180
New PVSystem.pv_load_p13umv55 bus1=p13umv55.1.2.3 phases=3 kV=12.47 kVA=287.0813397129187 Pmpp=300.0 %Cutout=0.1 %Cutin=0.1 Model=1 irradiance=1 yearly=SFO_37.8764_-122.3414_25_180
New PVSystem.pv_load_p13ulv39528 bus1=p13ulv39528.1.2 phases=1 kV=0.24 kVA=7.655502392344497 Pmpp=8.0 %Cutout=0.1 %Cutin=0.1 Model=1 irradiance=1 yearly=SFO_37.8764_-122.3414_25_180
New PVSystem.pv_load_p13ulv39485 bus1=p13ulv39485.1.2 phases=1 kV=0.24 kVA=4.784688995215311 Pmpp=5.0 %Cutout=0.1 %Cutin=0.1 Model=1 irradiance=1 yearly=SFO_37.8764_-122.3414_15_270
New PVSystem.pv_load_p13ulv32078 bus1=p13ulv32078.1.2 phases=1 kV=0.24 kVA=4.784688995215311 Pmpp=5.0 %Cutout=0.1 %Cutin=0.1 Model=1 irradiance=1 yearly=SFO_37.8764_-122.3414_15_270
New PVSystem.pv_load_p13ulv39497 bus1=p13ulv39497.1.2 phases=1 kV=0.24 kVA=4.784688995215311 Pmpp=5.0 %Cutout=0.1 %Cutin=0.1 Model=1 irradiance=1 yearly=SFO_37.8764_-122.3414_25_135
New PVSystem.pv_load_p13ulv39789 bus1=p13ulv39789.1.2.3 phases=3 kV=0.48 kVA=7.655502392344497 Pmpp=8.0 %Cutout=0.1 %Cutin=0.1 Model=1 irradiance=1 yearly=SFO_37.8764_-122.3414_15_135
New PVSystem.pv_load_p13ulv39505 bus1=p13ulv39505.1.2 phases=1 kV=0.24 kVA=4.784688995215311 Pmpp=5.0 %Cutout=0.1 %Cutin=0.1 Model=1 irradiance=1 yearly=SFO_37.8764_-122.3414_25_225
New PVSystem.pv_load_p13ulv28990 bus1=p13ulv28990.1.2.3 phases=3 kV=0.48 kVA=7.655502392344497 Pmpp=8.0 %Cutout=0.1 %Cutin=0.1 Model=1 irradiance=1 yearly=SFO_37.8764_-122.3414_15_225
New PVSystem.pv_load_p13ulv28560 bus1=p13ulv28560.1.2.3 phases=3 kV=0.48 kVA=95.69377990430621 Pmpp=100.0 %Cutout=0.1 %Cutin=0.1 Model=1 irradiance=1 yearly=SFO_37.8764_-122.3414_15_270
New PVSystem.pv_load_p13ulv28506 bus1=p13ulv28506.1.2.3 phases=3 kV=0.48 kVA=95.69377990430621 Pmpp=100.0 %Cutout=0.1 %Cutin=0.1 Model=1 irradiance=1 yearly=SFO_37.8764_-122.3414_25_225
New PVSystem.pv_load_p13ulv28524 bus1=p13ulv28524.1.2 phases=1 kV=0.24 kVA=95.69377990430621 Pmpp=100.0 %Cutout=0.1 %Cutin=0.1 Model=1 irradiance=1 yearly=SFO_37.8764_-122.3414_25_135
New PVSystem.pv_load_p13ulv39480 bus1=p13ulv39480.1.2 phases=1 kV=0.24 kVA=2.8708133971291865 Pmpp=3.0 %Cutout=0.1 %Cutin=0.1 Model=1 irradiance=1 yearly=SFO_37.8764_-122.3414_45_180
New PVSystem.pv_load_p13ulv39486 bus1=p13ulv39486.1.2 phases=1 kV=0.24 kVA=4.784688995215311 Pmpp=5.0 %Cutout=0.1 %Cutin=0.1 Model=1 irradiance=1 yearly=SFO_37.8764_-122.3414_15_225
New PVSystem.pv_load_p13ulv28496 bus1=p13ulv28496.1.2.3 phases=3 kV=0.48 kVA=7.655502392344497 Pmpp=8.0 %Cutout=0.1 %Cutin=0.1 Model=1 irradiance=1 yearly=SFO_37.8764_-122.3414_15_180
New PVSystem.pv_load_p13ulv41964 bus1=p13ulv41964.1.2 phases=1 kV=0.24 kVA=4.784688995215311 Pmpp=5.0 %Cutout=0.1 %Cutin=0.1 Model=1 irradiance=1 yearly=SFO_37.8764_-122.3414_25_90
New PVSystem.pv_load_p13ulv39516 bus1=p13ulv39516.1.2 phases=1 kV=0.24 kVA=4.784688995215311 Pmpp=5.0 %Cutout=0.1 %Cutin=0.1 Model=1 irradiance=1 yearly=SFO_37.8764_-122.3414_15_135
New PVSystem.pv_load_p13ulv28954 bus1=p13ulv28954.1.2 phases=1 kV=0.24 kVA=4.784688995215311 Pmpp=5.0 %Cutout=0.1 %Cutin=0.1 Model=1 irradiance=1 yearly=SFO_37.8764_-122.3414_15_225
New PVSystem.pv_load_p13ulv39800 bus1=p13ulv39800.1.2.3 phases=3 kV=0.48 kVA=95.69377990430621 Pmpp=100.0 %Cutout=0.1 %Cutin=0.1 Model=1 irradiance=1 yearly=SFO_37.8764_-122.3414_15_180
New PVSystem.pv_load_p13ulv28503 bus1=p13ulv28503.1.2.3 phases=3 kV=0.48 kVA=95.69377990430621 Pmpp=100.0 %Cutout=0.1 %Cutin=0.1 Model=1 irradiance=1 yearly=SFO_37.8764_-122.3414_15_180
New PVSystem.pv_load_p13ulv28975 bus1=p13ulv28975.1.2 phases=1 kV=0.24 kVA=95.69377990430621 Pmpp=100.0 %Cutout=0.1 %Cutin=0.1 Model=1 irradiance=1 yearly=SFO_37.8764_-122.3414_15_270
New PVSystem.pv_load_p13ulv41965 bus1=p13ulv41965.1.2 phases=1 kV=0.24 kVA=7.655502392344497 Pmpp=8.0 %Cutout=0.1 %Cutin=0.1 Model=1 irradiance=1 yearly=SFO_37.8764_-122.3414_25_180
New PVSystem.pv_load_p13ulv28532 bus1=p13ulv28532.1.2.3 phases=3 kV=0.48 kVA=95.69377990430621 Pmpp=100.0 %Cutout=0.1 %Cutin=0.1 Model=1 irradiance=1 yearly=SFO_37.8764_-122.3414_25_135
New PVSystem.pv_load_p13ulv28545 bus1=p13ulv28545.1.2 phases=1 kV=0.24 kVA=95.69377990430621 Pmpp=100.0 %Cutout=0.1 %Cutin=0.1 Model=1 irradiance=1 yearly=SFO_37.8764_-122.3414_25_180
New PVSystem.pv_load_p13ulv28971 bus1=p13ulv28971.1.2 phases=1 kV=0.24 kVA=4.784688995215311 Pmpp=5.0 %Cutout=0.1 %Cutin=0.1 Model=1 irradiance=1 yearly=SFO_37.8764_-122.3414_35_135
New PVSystem.pv_load_p13ulv41926 bus1=p13ulv41926.1.2 phases=1 kV=0.24 kVA=4.784688995215311 Pmpp=5.0 %Cutout=0.1 %Cutin=0.1 Model=1 irradiance=1 yearly=SFO_37.8764_-122.3414_15_225
New PVSystem.pv_load_p13ulv28537 bus1=p13ulv28537.1.2.3 phases=3 kV=0.48 kVA=7.655502392344497 Pmpp=8.0 %Cutout=0.1 %Cutin=0.1 Model=1 irradiance=1 yearly=SFO_37.8764_-122.3414_15_225
New PVSystem.pv_load_p13ulv20023 bus1=p13ulv20023.1.2.3 phases=3 kV=0.48 kVA=7.655502392344497 Pmpp=8.0 %Cutout=0.1 %Cutin=0.1 Model=1 irradiance=1 yearly=SFO_37.8764_-122.3414_15_180
New PVSystem.pv_p13udt18163-p13udt18168x bus1=p13udt18163-p13udt18168x.1.2.3 phases=3 kV=12.47 kVA=1913.8755980861245 Pmpp=2000.0 kvarMax=842.1052631578947 %Cutout=0.1 %Cutin=0.1 Model=1 irradiance=1 yearly=SFO_37.8764_-122.3414_35_180

